Version 4
SHEET 1 3460 1736
WIRE -496 -336 -672 -336
WIRE 16 -336 -496 -336
WIRE 112 -336 16 -336
WIRE 624 -336 112 -336
WIRE 112 -304 112 -336
WIRE 16 -224 16 -336
WIRE 1264 -192 960 -192
WIRE 112 -176 112 -224
WIRE 112 -176 80 -176
WIRE 400 -160 320 -160
WIRE 496 -160 400 -160
WIRE 560 -160 496 -160
WIRE 624 -160 624 -336
WIRE 624 -160 560 -160
WIRE 960 -160 960 -192
WIRE 960 -160 912 -160
WIRE 1008 -160 960 -160
WIRE 112 -128 112 -176
WIRE 320 -128 320 -160
WIRE 400 -128 400 -160
WIRE 496 -128 496 -160
WIRE 560 -128 560 -160
WIRE 624 -128 624 -160
WIRE 912 -128 912 -160
WIRE 1008 -128 1008 -160
WIRE -672 -112 -672 -336
WIRE -496 -112 -496 -336
WIRE 1264 -112 1264 -192
WIRE 16 -80 16 -128
WIRE 48 -80 16 -80
WIRE 496 -32 496 -64
WIRE 560 -32 560 -64
WIRE 560 -32 496 -32
WIRE 624 -32 624 -64
WIRE 624 -32 560 -32
WIRE 560 0 560 -32
WIRE -208 64 -304 64
WIRE -192 64 -208 64
WIRE 112 64 112 -32
WIRE 112 64 -112 64
WIRE 224 64 112 64
WIRE 320 64 320 -48
WIRE 320 64 288 64
WIRE 480 64 320 64
WIRE 608 64 560 64
WIRE 912 64 912 -48
WIRE 912 64 608 64
WIRE 1040 64 912 64
WIRE 1136 64 1136 16
WIRE 1136 64 1104 64
WIRE -304 96 -304 64
WIRE 608 112 608 64
WIRE -672 144 -672 -32
WIRE -672 144 -896 144
WIRE -624 144 -672 144
WIRE -400 144 -560 144
WIRE -368 144 -400 144
WIRE 1264 144 1264 -32
WIRE 1264 144 1136 144
WIRE 112 176 112 64
WIRE -304 224 -304 192
WIRE -96 224 -304 224
WIRE 48 224 -96 224
WIRE 224 224 192 224
WIRE 400 224 400 -48
WIRE 400 224 288 224
WIRE 480 224 400 224
WIRE 608 224 608 176
WIRE 608 224 560 224
WIRE 1008 224 1008 -48
WIRE 1008 224 608 224
WIRE 1040 224 1008 224
WIRE 1136 224 1104 224
WIRE 1136 272 1136 224
WIRE 1264 272 1264 144
WIRE -400 288 -400 144
WIRE -208 288 -208 64
WIRE -96 288 -96 224
WIRE 16 288 16 -80
WIRE -896 336 -896 144
WIRE -496 400 -496 -32
WIRE -400 400 -400 368
WIRE -400 400 -496 400
WIRE -496 416 -496 400
WIRE -400 432 -400 400
WIRE -208 432 -208 368
WIRE -896 528 -896 416
WIRE -496 528 -496 496
WIRE -400 528 -400 496
WIRE -208 528 -208 496
WIRE -96 528 -96 368
WIRE 16 528 16 368
WIRE 112 528 112 272
WIRE 192 528 192 224
FLAG 16 528 0
FLAG 112 528 0
FLAG -96 528 0
FLAG -208 528 0
FLAG 192 528 0
FLAG 560 0 0
FLAG 1264 272 0
FLAG -400 528 0
FLAG -496 528 0
FLAG -896 144 IN
FLAG 1136 16 OUThot
FLAG 1136 272 OUTcold
FLAG -896 528 0
SYMBOL npn 48 176 R0
SYMATTR InstName Q1
SYMATTR Value BC849C
SYMBOL pnp -368 192 M180
SYMATTR InstName Q2
SYMATTR Value BC859C
SYMBOL res 0 272 R0
SYMATTR InstName R1
SYMATTR Value 33k
SYMBOL res -112 272 R0
SYMATTR InstName R2
SYMATTR Value 33k
SYMBOL res -224 272 R0
SYMATTR InstName R3
SYMATTR Value 10k
SYMBOL res -96 48 R90
WINDOW 0 0 56 VBottom 2
WINDOW 3 32 56 VTop 2
SYMATTR InstName R4
SYMATTR Value 10k
SYMBOL res 96 -320 R0
SYMATTR InstName R5
SYMATTR Value 220
SYMBOL polcap 288 48 R90
WINDOW 0 0 32 VBottom 2
WINDOW 3 32 32 VTop 2
SYMATTR InstName C2
SYMATTR Value 33µ
SYMATTR Description Capacitor
SYMATTR Type cap
SYMATTR SpiceLine V=25 Irms=160m Rser=0.89 Lser=1.82791n mfg="Würth Elektronik" pn="865080442006 WCAP-ASLI 5x5,5" type="Al electrolytic"
SYMBOL res 304 -144 R0
SYMATTR InstName R6
SYMATTR Value 2.2k
SYMBOL res 384 -144 R0
SYMATTR InstName R7
SYMATTR Value 2.2k
SYMBOL cap 544 -128 R0
SYMATTR InstName C4
SYMATTR Value 100n
SYMBOL res 576 48 R90
WINDOW 0 0 56 VBottom 2
WINDOW 3 32 56 VTop 2
SYMATTR InstName R8
SYMATTR Value 100
SYMBOL res 576 208 R90
WINDOW 0 0 56 VBottom 2
WINDOW 3 32 56 VTop 2
SYMATTR InstName R9
SYMATTR Value 100
SYMBOL cap 592 112 R0
SYMATTR InstName C6
SYMATTR Value 1n
SYMBOL res 1120 48 R0
SYMATTR InstName R10
SYMATTR Value 10k
SYMBOL res 1120 128 R0
SYMATTR InstName R11
SYMATTR Value 10k
SYMBOL res 896 -144 R0
SYMATTR InstName R12
SYMATTR Value 6.8k
SYMBOL res 992 -144 R0
SYMATTR InstName R13
SYMATTR Value 6.8k
SYMBOL voltage 1264 -128 R0
WINDOW 123 0 0 Left 0
WINDOW 39 0 0 Left 0
SYMATTR InstName V1
SYMATTR Value 48
SYMBOL res -416 272 R0
SYMATTR InstName R14
SYMATTR Value 100k
SYMBOL res -512 400 R0
SYMATTR InstName R15
SYMATTR Value 33k
SYMBOL res -512 -128 R0
SYMATTR InstName R16
SYMATTR Value 100k
SYMBOL cap -560 128 R90
WINDOW 0 0 32 VBottom 2
WINDOW 3 32 32 VTop 2
SYMATTR InstName C8
SYMATTR Value 1µ
SYMBOL voltage -896 320 R0
WINDOW 123 24 124 Left 2
WINDOW 39 24 152 Left 2
SYMATTR Value2 AC 1.
SYMATTR InstName V2
SYMATTR Value SINE(0 .8 1k)
SYMBOL cap 1104 48 R90
WINDOW 0 0 32 VBottom 2
WINDOW 3 32 32 VTop 2
SYMATTR InstName C9
SYMATTR Value 47µ
SYMBOL cap 1104 208 R90
WINDOW 0 0 32 VBottom 2
WINDOW 3 32 32 VTop 2
SYMATTR InstName C10
SYMATTR Value 47µ
SYMBOL polcap 288 208 R90
WINDOW 0 0 32 VBottom 2
WINDOW 3 32 32 VTop 2
SYMATTR InstName C1
SYMATTR Value 33µ
SYMATTR Description Capacitor
SYMATTR Type cap
SYMATTR SpiceLine V=25 Irms=160m Rser=0.89 Lser=1.82791n mfg="Würth Elektronik" pn="865080442006 WCAP-ASLI 5x5,5" type="Al electrolytic"
SYMBOL polcap 608 -128 R0
SYMATTR InstName C3
SYMATTR Value 33µ
SYMATTR Description Capacitor
SYMATTR Type cap
SYMATTR SpiceLine V=25 Irms=160m Rser=0.89 Lser=1.82791n mfg="Würth Elektronik" pn="865080442006 WCAP-ASLI 5x5,5" type="Al electrolytic"
SYMBOL polcap -224 432 R0
SYMATTR InstName C5
SYMATTR Value 33µ
SYMATTR Description Capacitor
SYMATTR Type cap
SYMATTR SpiceLine V=25 Irms=160m Rser=0.89 Lser=1.82791n mfg="Würth Elektronik" pn="865080442006 WCAP-ASLI 5x5,5" type="Al electrolytic"
SYMBOL polcap -416 432 R0
SYMATTR InstName C7
SYMATTR Value 33µ
SYMATTR Description Capacitor
SYMATTR Type cap
SYMATTR SpiceLine V=25 Irms=160m Rser=0.89 Lser=1.82791n mfg="Würth Elektronik" pn="865080442006 WCAP-ASLI 5x5,5" type="Al electrolytic"
SYMBOL pnp 48 -32 M180
SYMATTR InstName Q3
SYMATTR Value BC859C
SYMBOL pnp 80 -128 R180
SYMATTR InstName Q4
SYMATTR Value BC859C
SYMBOL EXTRA\\DIODES.COM\\ZENER\\1N4739A 512 -64 R180
WINDOW 0 24 72 Left 0
WINDOW 3 24 0 Left 0
SYMATTR InstName U1
SYMBOL res -688 -128 R0
SYMATTR InstName R17
SYMATTR Value 2.2k
TEXT 1664 -792 Left 2 !.SUBCKT BC849C 1 2 3 \nQ1 1 2 3 Transistor 0.9342\nQ2 11 2 3 Transistor 0.0658\nRQ 1 11 662.1\nD1 2 1 Diode\n*\n.MODEL Transistor NPN\n+ IS = 1.641E-014\n+ NF = 0.9969\n+ ISE = 1.151E-016\n+ NE = 1.208\n+ BF = 509\n+ IKF = 0.0863\n+ VAF = 66.64\n+ NR = 0.9953\n+ ISC = 1.068E-014\n+ NC = 1.357\n+ BR = 9.832\n+ IKR = 0.1524\n+ VAR = 25\n+ RB = 360\n+ IRB = 2.5E-005\n+ RBM = 0.8\n+ RE = 0.6403\n+ RC = 0.5461\n+ XTB = 1.595\n+ EG = 1.11\n+ XTI = 6.27\n+ CJE = 1.119E-011\n+ VJE = 0.6755\n+ MJE = 0.3391\n+ TF = 5.25E-010\n+ XTF = 22.74\n+ VTF = 2\n+ ITF = 0.368\n+ PTF = 0\n+ CJC = 3.693E-012\n+ VJC = 0.5083\n+ MJC = 0.3642\n+ XCJC = 1\n+ TR = 0.0008\n+ CJS = 0\n+ VJS = 0.75\n+ MJS = 0.333\n+ FC = 0.9552\n.MODEL Diode D\n+ IS = 4.418E-016\n+ N = 0.9799\n+ BV = 1000\n+ IBV = 0.001\n+ RS = 3460\n+ CJO = 0\n+ VJ = 1\n+ M = 0.5\n+ FC = 0\n+ TT = 0\n+ EG = 1.11\n+ XTI = 3\n.ENDS
TEXT 2064 -792 Left 2 !.SUBCKT BC859B 1 2 3\nQ1 1 2 3 MAIN 0.9607\nQ2 11 2 3 MAIN 0.03929\nRQ 1 11 561.1\nD1 1 2 DIODE\n*\n.MODEL MAIN PNP\n+ IS = 1.95E-014\n+ NF = 1.022\n+ ISE = 1.253E-014\n+ NE = 1.577\n+ BF = 297.2\n+ IKF = 0.0831\n+ VAF = 41.13\n+ NR = 1.021\n+ ISC = 1.791E-016\n+ NC = 1.183\n+ BR = 10.02\n+ IKR = 0.02503\n+ VAR = 16.61\n+ RB = 220\n+ IRB = 2.5E-005\n+ RBM = 0.9\n+ RE = 1.045\n+ RC = 0.2657\n+ XTB = 1.28\n+ EG = 1.11\n+ XTI = 2.944\n+ CJE = 1.095E-011\n+ VJE = 0.6608\n+ MJE = 0.375\n+ TF = 1.2E-009\n+ XTF = 3\n+ VTF = 3.813\n+ ITF = 0.1208\n+ PTF = 0\n+ CJC = 5.88E-012\n+ VJC = 0.5428\n+ MJC = 0.39\n+ XCJC = 0.459\n+ TR = 8.8E-008\n+ CJS = 0\n+ VJS = 0.75\n+ MJS = 0.333\n+ FC = 0.9501\n.MODEL DIODE D\n+ IS = 7.703E-015\n+ N = 1.146\n+ BV = 1000\n+ IBV = 0.001\n+ RS = 2.826E+004\n+ CJO = 0\n+ VJ = 1\n+ M = 0.5\n+ FC = 0\n+ TT = 0\n+ EG = 1.11\n+ XTI = 3\n.ENDS
TEXT 2408 -800 Left 2 ;.subckt 865080442006_33uF 1 2\nRser 1 3 0.89\nLser 2 4 1.827910305E-09\nC 3 4 0.000033\nRpar 3 4 3030303.03030303\n.ends 865080442006_33uF
TEXT -832 248 Left 2 !.ac dec 100 20 20000
